!COMPUTATIONAL CHEMISTRY CONSORTIUM: C3
!LAWRENCE LIVERMORE NATIONAL LABORATORY





THERMO
   300.000  1000.000  5000.000
!FROM_UOG
C8H18-234               C   8H  18          G    300.00   5000.00 1000.00      1 !\COMMENT: THERM21, DATE: 09/11/2022
 2.38690253E+01 4.26189731E-02-1.54463851E-05 2.61579894E-09-1.70335776E-13    2
-3.80316245E+04-1.04498017E+02-4.75705674E+00 1.15776896E-01-8.09005459E-05    3
 2.58215351E-08-2.46722358E-12-2.95085070E+04 4.56520862E+01                   4
C8H17234-A              C   8H  17          G    300.00   5000.00  894.00      1 !\COMMENT: THERM21, DATE: 09/11/2022
 1.48029972E+01 5.57586887E-02-2.29923205E-05 4.33000795E-09-3.05812316E-13    2
-9.38488057E+03-4.89781405E+01-4.88670602E+00 1.21058616E-01-1.02092749E-04    3
 4.60717026E-08-8.56113893E-12-4.76083004E+03 4.94357232E+01                   4
C8H17234-B              C   8H  17          G    300.00   5000.00  665.00      1 !\COMMENT: THERM21, DATE: 09/11/2022
 9.98800102E+00 6.05980367E-02-2.51840305E-05 4.69677894E-09-3.26537470E-13    2
-1.04201435E+04-2.03381687E+01-1.87188813E-01 8.60655375E-02-3.84591776E-05    3
-1.29752100E-09 4.03170820E-12-7.80379991E+03 3.21723340E+01                   4
C8H17234-F              C   8H  17          G    300.00   5000.00 1000.00      1 !\COMMENT: THERM21, DATE: 09/11/2022
 1.18150622E+01 6.41085106E-02-2.97343130E-05 5.92058535E-09-4.28599534E-13    2
-9.10851663E+03-3.59876544E+01-5.86396660E+00 1.28328298E-01-1.20526335E-04    3
 6.32060442E-08-1.37731613E-11-4.92782671E+03 5.15519608E+01                   4
C8H16234-A 9/30/19 THERMC   8H  16          G    300.00   5000.00 1398.00      1
 2.36454932E+01 3.58751176E-02-1.21699517E-05 1.87864529E-09-1.08549779E-13    2
-2.39892678E+04-9.83478826E+01-3.63806769E+00 1.05635312E-01-8.50122698E-05    3
 3.89493285E-08-7.74384482E-12-1.49206266E+04 4.64472593E+01                   4
C8H16234-B 9/30/19 THERMC   8H  16          G    300.00   5000.00 1392.00      1
 2.21777952E+01 3.73287625E-02-1.27176707E-05 1.96899935E-09-1.14008655E-13    2
-2.67033464E+04-9.05999160E+01-2.59851799E+00 9.42744286E-02-6.54669714E-05    3
 2.63351211E-08-4.90890164E-12-1.78188412E+04 4.31738509E+01                   4
C8H16234-F 9/30/19 THERMC   8H  16          G    300.00   5000.00 1397.00      1
 2.36999138E+01 3.59374227E-02-1.22156665E-05 1.88832146E-09-1.09216561E-13    2
-2.55167004E+04-1.00332065E+02-3.01256655E+00 1.02122198E-01-7.88930524E-05    3
 3.47983761E-08-6.76367803E-12-1.64416840E+04 4.21535869E+01                   4
C8H15234A-A   9/30 THERMC   8H  15          G    300.00   5000.00 1398.00      1
 2.45497187E+01 3.28383271E-02-1.11842228E-05 1.73122164E-09-1.00226581E-13    2
-6.30610382E+03-1.04118176E+02-4.66212309E+00 1.11140351E-01-9.66941432E-05    3
 4.66356907E-08-9.47898525E-12 3.02955619E+03 4.96106797E+01                   4
C8H15234A-D   9/30 THERMC   8H  15          G    300.00   5000.00 1392.00      1
 2.19344202E+01 3.49579554E-02-1.18934886E-05 1.83969709E-09-1.06453655E-13    2
-9.71397126E+02-8.52244419E+01-2.35473565E-01 8.39808748E-02-5.47557633E-05    3
 2.04014323E-08-3.59091627E-12 7.15005090E+03 3.51209314E+01                   4
C8H15234A-E   9/30 THERMC   8H  15          G    300.00   5000.00 1398.00      1
 2.30757883E+01 3.38347789E-02-1.14712595E-05 1.77010544E-09-1.02250523E-13    2
 1.13636831E+03-9.24825636E+01-3.26814275E+00 1.02097313E-01-8.37037277E-05    3
 3.88916189E-08-7.78379938E-12 9.80036073E+03 4.70026867E+01                   4
C8H15234A-F   9/30 THERMC   8H  15          G    300.00   5000.00 1398.00      1
 2.30757883E+01 3.38347789E-02-1.14712595E-05 1.77010544E-09-1.02250523E-13    2
 1.13636831E+03-9.24825636E+01-3.26814275E+00 1.02097313E-01-8.37037277E-05    3
 3.88916189E-08-7.78379938E-12 9.80036073E+03 4.70026867E+01                   4
C8H15234B-D   9/30 THERMC   8H  15          G    300.00   5000.00 1388.00      1
 2.15499892E+01 3.58643200E-02-1.23336970E-05 1.92164003E-09-1.11758551E-13    2
-1.05531085E+04-8.64372904E+01-1.80315270E+00 8.65885846E-02-5.62629479E-05    3
 2.11659072E-08-3.85154931E-12-1.84736741E+03 4.07644806E+01                   4
C8H15234B-E   9/30 THERMC   8H  15          G    300.00   5000.00 1393.00      1
 2.15557372E+01 3.54111062E-02-1.20778714E-05 1.87132111E-09-1.08407579E-13    2
-1.56953112E+03-8.44630730E+01-2.24073920E+00 9.08548563E-02-6.44744852E-05    3
 2.65961689E-08-5.04716124E-12 6.90271273E+03 4.37796318E+01                   4
C8H15234B-F   9/30 THERMC   8H  15          G    300.00   5000.00 1393.00      1
 2.29599001E+01 3.45302891E-02-1.18430668E-05 1.84186477E-09-1.06983761E-13    2
-8.99792089E+03-9.53246928E+01-3.41443012E+00 9.88755847E-02-7.60325674E-05    3
 3.35510004E-08-6.59071015E-12 1.00500898E+02 4.57829335E+01                   4
C8H15234C-E  10/10 THERMC   8H  15          G    300.00   5000.00 1393.00      1
 2.29599001E+01 3.45302891E-02-1.18430668E-05 1.84186477E-09-1.06983761E-13    2
-8.99792089E+03-9.53246928E+01-3.41443012E+00 9.88755847E-02-7.60325674E-05    3
 3.35510004E-08-6.59071015E-12 1.00500898E+02 4.57829335E+01                   4
C8H15234F-B   9/30 THERMC   8H  15          G    300.00   5000.00 1393.00      1
 2.30864002E+01 3.44975540E-02-1.18479428E-05 1.84428089E-09-1.07190497E-13    2
-9.38245009E+03-9.55959920E+01-2.78034118E+00 9.69928078E-02-7.36392443E-05    3
 3.22192929E-08-6.31945864E-12-3.85865672E+02 4.30339385E+01                   4
C8H15234F-A  10/ 1 THERMC   8H  15          G    300.00   5000.00 1398.00      1
 2.30036514E+01 3.40728959E-02-1.15915843E-05 1.79279160E-09-1.03727203E-13    2
-3.40252379E+02-9.23597400E+01-2.40988344E+00 9.76389840E-02-7.63834803E-05    3
 3.41166374E-08-6.68523773E-12 8.24248471E+03 4.30005615E+01                   4
C8H14234-DAD  10/1 THERMC   8H  14          G    300.00   5000.00 1395.00      1
 2.14346727E+01 3.32843075E-02-1.13211297E-05 1.75082401E-09-1.01296261E-13    2
-9.17445086E+03-8.55640185E+01-2.39362794E+00 9.09831997E-02-6.80750450E-05    3
 2.92795677E-08-5.63323633E-12-9.37015216E+02 4.20272514E+01                   4
C8H14234-DAF  10/1 THERMC   8H  14          G    300.00   5000.00 1391.00      1
 2.06368516E+01 3.38011352E-02-1.14614140E-05 1.76856991E-09-1.02155399E-13    2
-1.60565518E+04-5.89217608E+01 2.19406307E+00 7.51300366E-02-4.94567216E-05    3
 1.97287753E-08-3.80638436E-12-9.25046606E+03 4.11868742E+01                   4
C7H1223-DAD  10/10 THERMC   7H  12          G    300.00   5000.00 1396.00      1
 1.88482159E+01 2.83124266E-02-9.61647753E-06 1.48575495E-09-8.59010281E-14    2
-3.82936516E+03-7.35857531E+01-1.52238274E+00 7.82784558E-02-5.94746986E-05    3
 2.59490923E-08-5.02842756E-12 3.14824672E+03 3.52631171E+01                   4
C7H1223-DBD  10/10 THERMC   7H  12          G    300.00   5000.00 1387.00      1
 1.91905328E+01 2.66568537E-02-8.77462189E-06 1.32850743E-09-7.57710020E-14    2
-8.39026472E+03-7.50316690E+01-5.01853176E-01 6.95961560E-02-4.32780260E-05    3
 1.36407153E-08-1.78890416E-12-1.32424540E+03 3.17064935E+01                   4
C7H1223-DCD  10/10 THERMC   7H  12          G    300.00   5000.00 1381.00      1
 1.97203136E+01 2.87341966E-02-1.00225972E-05 1.57656493E-09-9.23066051E-14    2
-1.56255066E+04-9.13586679E+01-1.77918667E+00 7.47842206E-02-4.92982874E-05    3
 1.86709012E-08-3.45016078E-12-7.53661230E+03 2.59979986E+01                   4
C7H1223-DDF  10/10 THERMC   7H  12          G    300.00   5000.00 1397.00      1
 2.12000295E+01 2.51066167E-02-8.27385943E-06 1.25383902E-09-7.15636167E-14    2
-7.51164861E+03-8.78358812E+01-6.21286944E-01 7.52914646E-02-5.15729518E-05    3
 1.81135817E-08-2.63154045E-12 2.28170030E+01 2.94545803E+01                   4
C8234AOHBJ   10/ 8 THERMC   8H  17O   1     G    300.00   5000.00 1398.00      1
 2.62938240E+01 3.78061259E-02-1.28219324E-05 1.97898964E-09-1.14336288E-13    2
-3.48908351E+04-1.05050458E+02-2.64849868E+00 1.11303107E-01-8.87457221E-05    3
 4.01505370E-08-7.89379717E-12-2.52456575E+04 4.86810049E+01                   4
C8234OOHA-A             C   8H  17O   2     G    300.00   5000.00 1000.00      1 !\COMMENT: THERM21, DATE: 09/11/2022
 2.86710988E+01 4.25121418E-02-1.64857973E-05 2.85791582E-09-1.85656864E-13    2
-2.33618988E+04-1.18439091E+02 1.56319762E+00 1.11115914E-01-7.54231659E-05    3
 2.09907958E-08-9.14345232E-13-1.52975764E+04 2.38184478E+01                   4
C8234OOHA-B             C   8H  17O   2     G    300.00   5000.00 1000.00      1 !\COMMENT: THERM21, DATE: 09/11/2022
 2.47704327E+01 4.53931409E-02-1.72591262E-05 2.96177216E-09-1.91634370E-13    2
-2.45639191E+04-9.44698895E+01 1.40016292E+00 1.06336424E-01-7.50891728E-05    3
 2.65056217E-08-3.51066662E-12-1.76107647E+04 2.79197631E+01                   4
C8234OOHA-D             C   8H  17O   2     G    300.00   5000.00 1000.00      1 !\COMMENT: THERM21, DATE: 09/11/2022
 2.58735131E+01 4.49976644E-02-1.75754834E-05 3.06502220E-09-2.00046747E-13    2
-2.55516385E+04-9.89369503E+01 8.39552270E+00 6.48526211E-02 1.59018013E-05    3
-5.32846881E-08 2.02565625E-11-1.91641156E+04-1.12778457E+00                   4
C8234OOHA-E             C   8H  17O   2     G    300.00   5000.00 1000.00      1 !\COMMENT: THERM21, DATE: 09/11/2022
 2.88687307E+01 4.19876857E-02-1.61793482E-05 2.79531361E-09-1.81328971E-13    2
-2.34434942E+04-1.18507776E+02 1.14489126E+00 1.13450647E-01-7.89836365E-05    3
 2.28305029E-08-1.18636620E-12-1.53241627E+04 2.65137671E+01                   4
C8234OOHA-F             C   8H  17O   2     G    300.00   5000.00 1000.00      1 !\COMMENT: THERM21, DATE: 09/11/2022
 2.82326219E+01 4.23327568E-02-1.60686760E-05 2.75047380E-09-1.77490067E-13    2
-2.34191335E+04-1.15289365E+02 1.67638628E-01 1.20720276E-01-9.74171014E-05    3
 3.99647356E-08-6.39835546E-12-1.54911602E+04 3.00138276E+01                   4
C8234OOHB-A             C   8H  17O   2     G    300.00   5000.00  877.00      1 !\COMMENT: THERM21, DATE: 09/11/2022
 2.12318252E+01 5.50032301E-02-2.28064109E-05 4.25903907E-09-2.96968339E-13    2
-2.22361434E+04-7.78313630E+01-9.14330567E-01 1.35236688E-01-1.30484010E-04    3
 6.79522289E-08-1.43990263E-11-1.74148068E+04 3.10511001E+01                   4
C8234OOHB-D             C   8H  17O   2     G    300.00   5000.00 1000.00      1 !\COMMENT: THERM21, DATE: 09/11/2022
 2.56159403E+01 4.40171262E-02-1.66825196E-05 2.85636890E-09-1.84534947E-13    2
-2.75243697E+04-9.97424897E+01 7.14601503E+00 7.71602311E-02-1.32589836E-05    3
-2.89505207E-08 1.34948630E-11-2.15513327E+04 1.70808349E-01                   4
C8234OOHB-E             C   8H  17O   2     G    300.00   5000.00 1000.00      1 !\COMMENT: THERM21, DATE: 09/11/2022
 2.99603560E+01 3.97170276E-02-1.47569443E-05 2.49867615E-09-1.60624364E-13    2
-2.61348825E+04-1.26285486E+02-1.64481272E-01 1.25055908E-01-1.01823674E-04    3
 3.95505744E-08-5.38471111E-12-1.78753993E+04 2.89593911E+01                   4
C8234OOHB-F             C   8H  17O   2     G    300.00   5000.00  871.00      1 !\COMMENT: THERM21, DATE: 09/11/2022
 2.12414502E+01 5.33097799E-02-2.14765898E-05 3.96679583E-09-2.76166365E-13    2
-2.31544476E+04-7.83765395E+01-2.78972824E+00 1.41383030E-01-1.40856952E-04    3
 7.51128773E-08-1.61036842E-11-1.79866530E+04 3.94843311E+01                   4
C8234OOHC-A 15/11/202   C   8H  17O   2     G    300.00   5000.00 1404.00     91
 3.60602832E+01 3.21735740E-02-1.10030543E-05 1.70838070E-09-9.91301030E-14    2
-2.90847123E+04-1.62745599E+02 2.51404261E-01 1.24535444E-01-1.03364923E-04    3
 4.39796172E-08-7.50875680E-12-1.76137283E+04 2.63222019E+01                   4
C8234OOHC-B             C   8H  17O   2     G    300.00   5000.00 1000.00      1 !\COMMENT: THERM21, DATE: 09/11/2022
 2.51613571E+01 4.37603430E-02-1.59992171E-05 2.68144530E-09-1.71352670E-13    2
-2.71470720E+04-9.87212369E+01 3.28457352E+00 9.48160853E-02-4.53544276E-05    3
-3.97850611E-09 6.64292564E-12-2.07109572E+04 1.65365076E+01                   4
C8234OOHC-F             C   8H  17O   2     G    300.00   5000.00  839.00      1 !\COMMENT: THERM21, DATE: 09/11/2022
 1.93138653E+01 5.65196959E-02-2.33216619E-05 4.20581636E-09-2.79909700E-13    2
-2.12881848E+04-6.88478119E+01-2.43218297E+00 1.49525061E-01-1.70546560E-04    3
 1.05890848E-07-2.59349829E-11-1.72575405E+04 3.44970220E+01                   4
C8234OOHF-A             C   8H  17O   2     G    300.00   5000.00  572.00      1 !\COMMENT: THERM21, DATE: 09/11/2022
 1.73878149E+01 5.98817427E-02-2.60794637E-05 5.02246926E-09-3.56748772E-13    2
-1.88296942E+04-5.40804383E+01 3.03129308E-01 1.10298107E-01-6.52309637E-05    3
 8.07788543E-09 3.58213499E-12-1.49925840E+04 3.16632970E+01                   4
C8234OOHF-B             C   8H  17O   2     G    300.00   5000.00 1000.00      1 !\COMMENT: THERM21, DATE: 09/11/2022
 2.64544768E+01 4.44866120E-02-1.75159240E-05 3.07094966E-09-2.01114441E-13    2
-2.52274256E+04-1.03240119E+02 1.05643171E+01 5.51679179E-02 3.34316402E-05    3
-6.68887267E-08 2.39799742E-11-1.90067389E+04-1.23552528E+01                   4
C8H16234-OAA  10/2 THERMC   8H  16O   1     G    300.00   5000.00 1418.00      1
 2.57449440E+01 3.56642359E-02-1.17965452E-05 1.78974922E-09-1.02156638E-13    2
-3.61179496E+04-1.10811721E+02-1.10824323E+01 1.40781138E-01-1.29828215E-04    3
 6.30972748E-08-1.23949019E-11-2.52716236E+04 8.02115544E+01                   4
C8H16234-OAB  10/2 THERMC   8H  16O   1     G    300.00   5000.00 1409.00      1
 2.71763958E+01 3.51318086E-02-1.18522982E-05 1.82295462E-09-1.05068496E-13    2
-3.99256883E+04-1.19414858E+02-7.29396682E+00 1.28406273E-01-1.12386767E-04    3
 5.28688305E-08-1.02926730E-11-2.91868089E+04 6.13300372E+01                   4
C8H16234-OAD  10/2 THERMC   8H  16O   1     G    300.00   5000.00 1404.00      1
 2.56449361E+01 3.76631780E-02-1.28076263E-05 1.98045807E-09-1.14573424E-13    2
-5.16661659E+04-1.13678818E+02-1.18199607E+01 1.40365189E-01-1.26060560E-04    3
 6.11549993E-08-1.22754529E-11-4.00250014E+04 8.24848066E+01                   4
C8H16234-OAE  10/2 THERMC   8H  16O   1     G    300.00   5000.00 1416.00      1
 2.57372246E+01 3.69438105E-02-1.23305000E-05 1.88265526E-09-1.07950788E-13    2
-4.87984018E+04-1.18375419E+02-1.35216959E+01 1.46668443E-01-1.33242214E-04    3
 6.38006185E-08-1.24134956E-11-3.70017072E+04 8.60880824E+01                   4
C8H16234-OAF  10/2 THERMC   8H  16O   1     G    300.00   5000.00 1418.00      1
 2.51558757E+01 3.65698777E-02-1.21054451E-05 1.83766359E-09-1.04936238E-13    2
-4.85824696E+04-1.09759654E+02-1.29384895E+01 1.44654478E-01-1.32664336E-04    3
 6.40593493E-08-1.25129720E-11-3.73130850E+04 8.80384504E+01                   4
C8H16234-OBD  10/2 THERMC   8H  16O   1     G    300.00   5000.00 1401.00      1
 2.60518013E+01 3.70298377E-02-1.26191949E-05 1.95415337E-09-1.13166888E-13    2
-4.55279616E+04-1.17293695E+02-6.42868453E+00 1.20951932E-01-1.00084377E-04    3
 4.57926812E-08-8.93022666E-12-3.49159167E+04 5.45975445E+01                   4
C8H16234-OBE  10/2 THERMC   8H  16O   1     G    300.00   5000.00 1404.00      1
 2.56449361E+01 3.76631780E-02-1.28076263E-05 1.98045807E-09-1.14573424E-13    2
-5.16661659E+04-1.12989336E+02-1.18199607E+01 1.40365189E-01-1.26060560E-04    3
 6.11549993E-08-1.22754529E-11-4.00250014E+04 8.31742883E+01                   4
C8H16234-OBF  10/2 THERMC   8H  16O   1     G    300.00   5000.00 1403.00      1
 2.62338581E+01 3.67497605E-02-1.24944138E-05 1.93170945E-09-1.11738991E-13    2
-4.23178242E+04-1.13623864E+02-9.99664086E+00 1.36711626E-01-1.23657843E-04    3
 6.05238780E-08-1.22454261E-11-3.11006130E+04 7.58925523E+01                   4
C8H16234-OCF  10/2 THERMC   8H  16O   1     G    300.00   5000.00 1409.00      1
 2.71763958E+01 3.51318086E-02-1.18522982E-05 1.82295462E-09-1.05068496E-13    2
-4.14858292E+04-1.20798854E+02-7.29396682E+00 1.28406273E-01-1.12386767E-04    3
 5.28688305E-08-1.02926730E-11-3.07469498E+04 5.99460412E+01                   4
C8234-QAA-B   10/4 THERMC   8H  17O   4     G    300.00   5000.00 1397.00      1
 3.41828628E+01 3.80682421E-02-1.30446967E-05 2.02764938E-09-1.17734917E-13    2
-3.83727437E+04-1.39326457E+02-1.63868501E-01 1.26788396E-01-1.06116126E-04    3
 4.92837168E-08-9.77834655E-12-2.70970467E+04 4.25453652E+01                   4
C8234-QAA-D   10/4 THERMC   8H  17O   4     G    300.00   5000.00 1397.00      1
 3.41828628E+01 3.80682421E-02-1.30446967E-05 2.02764938E-09-1.17734917E-13    2
-3.83727437E+04-1.39326457E+02-1.63868501E-01 1.26788396E-01-1.06116126E-04    3
 4.92837168E-08-9.77834655E-12-2.70970467E+04 4.25453652E+01                   4
C8234-QAA-E   10/4 THERMC   8H  17O   4     G    300.00   5000.00 1400.00      1
 3.53690328E+01 3.68875956E-02-1.25985440E-05 1.95391224E-09-1.13274268E-13    2
-3.62794801E+04-1.46834737E+02-3.28129096E+00 1.45324529E-01-1.35685053E-04    3
 6.81584644E-08-1.40598372E-11-2.44353538E+04 5.48092558E+01                   4
C8234-QAA-F   10/4 THERMC   8H  17O   4     G    300.00   5000.00 1400.00      1
 3.53690328E+01 3.68875956E-02-1.25985440E-05 1.95391224E-09-1.13274268E-13    2
-3.62794801E+04-1.46834737E+02-3.28129096E+00 1.45324529E-01-1.35685053E-04    3
 6.81584644E-08-1.40598372E-11-2.44353538E+04 5.48092558E+01                   4
C8234-QAC-A   10/4 THERMC   8H  17O   4     G    300.00   5000.00 1400.00      1
 3.52438246E+01 3.68653157E-02-1.25613311E-05 1.94494239E-09-1.12621346E-13    2
-4.02622190E+04-1.47525329E+02-2.13312946E+00 1.42773026E-01-1.34165130E-04    3
 6.80463725E-08-1.41517505E-11-2.88797503E+04 4.71651629E+01                   4
C8234-QAC-B   10/4 THERMC   8H  17O   4     G    300.00   5000.00 1397.00      1
 3.40678375E+01 3.80383030E-02-1.30049611E-05 2.01829041E-09-1.17059282E-13    2
-4.23552269E+04-1.40067678E+02 9.71106446E-01 1.24372622E-01-1.04834212E-04    3
 4.93295743E-08-9.90678766E-12-3.15417365E+04 3.49451922E+01                   4
C8234-QAC-D   10/4 THERMC   8H  17O   4     G    300.00   5000.00 1397.00      1
 3.40678375E+01 3.80383030E-02-1.30049611E-05 2.01829041E-09-1.17059282E-13    2
-4.23552269E+04-1.40067678E+02 9.71106446E-01 1.24372622E-01-1.04834212E-04    3
 4.93295743E-08-9.90678766E-12-3.15417365E+04 3.49451922E+01                   4
C8234-QAC-E   10/4 THERMC   8H  17O   4     G    300.00   5000.00 1400.00      1
 3.52438246E+01 3.68653157E-02-1.25613311E-05 1.94494239E-09-1.12621346E-13    2
-4.02622190E+04-1.47525329E+02-2.13312946E+00 1.42773026E-01-1.34165130E-04    3
 6.80463725E-08-1.41517505E-11-2.88797503E+04 4.71651629E+01                   4
C8234-QAC-F   10/4 THERMC   8H  17O   4     G    300.00   5000.00 1400.00      1
 3.52438246E+01 3.68653157E-02-1.25613311E-05 1.94494239E-09-1.12621346E-13    2
-4.02622190E+04-1.47525329E+02-2.13312946E+00 1.42773026E-01-1.34165130E-04    3
 6.80463725E-08-1.41517505E-11-2.88797503E+04 4.71651629E+01                   4
C8234-QAD-A   10/4 THERMC   8H  17O   4     G    300.00   5000.00 1400.00      1
 3.52438246E+01 3.68653157E-02-1.25613311E-05 1.94494239E-09-1.12621346E-13    2
-4.02622190E+04-1.47525329E+02-2.13312946E+00 1.42773026E-01-1.34165130E-04    3
 6.80463725E-08-1.41517505E-11-2.88797503E+04 4.71651629E+01                   4
C8234-QAD-B   10/4 THERMC   8H  17O   4     G    300.00   5000.00 1397.00      1
 3.40678375E+01 3.80383030E-02-1.30049611E-05 2.01829041E-09-1.17059282E-13    2
-4.23552269E+04-1.40067678E+02 9.71106446E-01 1.24372622E-01-1.04834212E-04    3
 4.93295743E-08-9.90678766E-12-3.15417365E+04 3.49451922E+01                   4
C8234-QAD-E   10/4 THERMC   8H  17O   4     G    300.00   5000.00 1400.00      1
 3.52438246E+01 3.68653157E-02-1.25613311E-05 1.94494239E-09-1.12621346E-13    2
-4.02622190E+04-1.47525329E+02-2.13312946E+00 1.42773026E-01-1.34165130E-04    3
 6.80463725E-08-1.41517505E-11-2.88797503E+04 4.71651629E+01                   4
C8234-QAD-F   10/4 THERMC   8H  17O   4     G    300.00   5000.00 1400.00      1
 3.52438246E+01 3.68653157E-02-1.25613311E-05 1.94494239E-09-1.12621346E-13    2
-4.02622190E+04-1.47525329E+02-2.13312946E+00 1.42773026E-01-1.34165130E-04    3
 6.80463725E-08-1.41517505E-11-2.88797503E+04 4.71651629E+01                   4
C8234-QAE-A   10/4 THERMC   8H  17O   4     G    300.00   5000.00 1400.00      1
 3.53690328E+01 3.68875956E-02-1.25985440E-05 1.95391224E-09-1.13274268E-13    2
-3.62794801E+04-1.46427088E+02-3.28129096E+00 1.45324529E-01-1.35685053E-04    3
 6.81584644E-08-1.40598372E-11-2.44353538E+04 5.52169055E+01                   4
C8234-QAE-B   10/4 THERMC   8H  17O   4     G    300.00   5000.00 1397.00      1
 3.41828628E+01 3.80682421E-02-1.30446967E-05 2.02764938E-09-1.17734917E-13    2
-3.83727437E+04-1.38923840E+02-1.63868501E-01 1.26788396E-01-1.06116126E-04    3
 4.92837168E-08-9.77834655E-12-2.70970467E+04 4.29479822E+01                   4
C8234-QAE-F   10/4 THERMC   8H  17O   4     G    300.00   5000.00 1400.00      1
 3.53690328E+01 3.68875956E-02-1.25985440E-05 1.95391224E-09-1.13274268E-13    2
-3.62794801E+04-1.46427088E+02-3.28129096E+00 1.45324529E-01-1.35685053E-04    3
 6.81584644E-08-1.40598372E-11-2.44353538E+04 5.52169055E+01                   4
C8234-QAF-A   10/4 THERMC   8H  17O   4     G    300.00   5000.00 1400.00      1
 3.53690328E+01 3.68875956E-02-1.25985440E-05 1.95391224E-09-1.13274268E-13    2
-3.62794801E+04-1.45732573E+02-3.28129096E+00 1.45324529E-01-1.35685053E-04    3
 6.81584644E-08-1.40598372E-11-2.44353538E+04 5.59114198E+01                   4
C8234-QAF-B   10/4 THERMC   8H  17O   4     G    300.00   5000.00 1397.00      1
 3.41828628E+01 3.80682421E-02-1.30446967E-05 2.02764938E-09-1.17734917E-13    2
-3.83727437E+04-1.38229326E+02-1.63868501E-01 1.26788396E-01-1.06116126E-04    3
 4.92837168E-08-9.77834655E-12-2.70970467E+04 4.36424965E+01                   4
C8234-QAF-D   10/4 THERMC   8H  17O   4     G    300.00   5000.00 1397.00      1
 3.41828628E+01 3.80682421E-02-1.30446967E-05 2.02764938E-09-1.17734917E-13    2
-3.83727437E+04-1.38229326E+02-1.63868501E-01 1.26788396E-01-1.06116126E-04    3
 4.92837168E-08-9.77834655E-12-2.70970467E+04 4.36424965E+01                   4
C8234-QAF-E   10/4 THERMC   8H  17O   4     G    300.00   5000.00 1400.00      1
 3.53690328E+01 3.68875956E-02-1.25985440E-05 1.95391224E-09-1.13274268E-13    2
-3.62794801E+04-1.45732573E+02-3.28129096E+00 1.45324529E-01-1.35685053E-04    3
 6.81584644E-08-1.40598372E-11-2.44353538E+04 5.59114198E+01                   4
C8234-QBC-A   10/4 THERMC   8H  17O   4     G    300.00   5000.00 1400.00      1
 3.51487343E+01 3.67926489E-02-1.25015010E-05 1.93191659E-09-1.11711608E-13    2
-4.42530436E+04-1.49476968E+02-1.11783001E+00 1.40835584E-01-1.33561749E-04    3
 6.84924496E-08-1.43655540E-11-3.33047751E+04 3.90338980E+01                   4
C8234-QBC-D   10/4 THERMC   8H  17O   4     G    300.00   5000.00 1397.00      1
 3.39759643E+01 3.79520711E-02-1.29381840E-05 2.00395432E-09-1.16064433E-13    2
-4.63479744E+04-1.42037299E+02 2.00115784E+00 1.22323577E-01-1.04025255E-04    3
 4.96239095E-08-1.00816708E-11-3.59677340E+04 2.67552772E+01                   4
C8234-QBC-E   10/4 THERMC   8H  17O   4     G    300.00   5000.00 1400.00      1
 3.51487343E+01 3.67926489E-02-1.25015010E-05 1.93191659E-09-1.11711608E-13    2
-4.42530436E+04-1.49476968E+02-1.11783001E+00 1.40835584E-01-1.33561749E-04    3
 6.84924496E-08-1.43655540E-11-3.33047751E+04 3.90338980E+01                   4
C8234-QBC-F   10/4 THERMC   8H  17O   4     G    300.00   5000.00 1400.00      1
 3.51487343E+01 3.67926489E-02-1.25015010E-05 1.93191659E-09-1.11711608E-13    2
-4.42530436E+04-1.49476968E+02-1.11783001E+00 1.40835584E-01-1.33561749E-04    3
 6.84924496E-08-1.43655540E-11-3.33047751E+04 3.90338980E+01                   4
C8234-QBD-A   10/4 THERMC   8H  17O   4     G    300.00   5000.00 1400.00      1
 3.51487343E+01 3.67926489E-02-1.25015010E-05 1.93191659E-09-1.11711608E-13    2
-4.42530436E+04-1.50855932E+02-1.11783001E+00 1.40835584E-01-1.33561749E-04    3
 6.84924496E-08-1.43655540E-11-3.33047751E+04 3.76549348E+01                   4
C8234-QBD-F   10/4 THERMC   8H  17O   4     G    300.00   5000.00 1400.00      1
 3.51487343E+01 3.67926489E-02-1.25015010E-05 1.93191659E-09-1.11711608E-13    2
-4.42530436E+04-1.50855932E+02-1.11783001E+00 1.40835584E-01-1.33561749E-04    3
 6.84924496E-08-1.43655540E-11-3.33047751E+04 3.76549348E+01                   4
C8234-QBF-A   10/4 THERMC   8H  17O   4     G    300.00   5000.00 1400.00      1
 3.52438246E+01 3.68653157E-02-1.25613311E-05 1.94494239E-09-1.12621346E-13    2
-4.02622190E+04-1.47525329E+02-2.13312946E+00 1.42773026E-01-1.34165130E-04    3
 6.80463725E-08-1.41517505E-11-2.88797503E+04 4.71651629E+01                   4
C8234-QBF-D   10/4 THERMC   8H  17O   4     G    300.00   5000.00 1397.00      1
 3.40678375E+01 3.80383030E-02-1.30049611E-05 2.01829041E-09-1.17059282E-13    2
-4.23552269E+04-1.40067678E+02 9.71106446E-01 1.24372622E-01-1.04834212E-04    3
 4.93295743E-08-9.90678766E-12-3.15417365E+04 3.49451922E+01                   4
C8234-QBF-E   10/4 THERMC   8H  17O   4     G    300.00   5000.00 1400.00      1
 3.52438246E+01 3.68653157E-02-1.25613311E-05 1.94494239E-09-1.12621346E-13    2
-4.02622190E+04-1.47525329E+02-2.13312946E+00 1.42773026E-01-1.34165130E-04    3
 6.80463725E-08-1.41517505E-11-2.88797503E+04 4.71651629E+01                   4
C8234-QCF-A   10/4 THERMC   8H  17O   4     G    300.00   5000.00 1400.00      1
 3.52438246E+01 3.68653157E-02-1.25613311E-05 1.94494239E-09-1.12621346E-13    2
-4.02622190E+04-1.48214811E+02-2.13312946E+00 1.42773026E-01-1.34165130E-04    3
 6.80463725E-08-1.41517505E-11-2.88797503E+04 4.64756813E+01                   4
C8234-QCF-B   10/4 THERMC   8H  17O   4     G    300.00   5000.00 1397.00      1
 3.40678375E+01 3.80383030E-02-1.30049611E-05 2.01829041E-09-1.17059282E-13    2
-4.23552269E+04-1.40757160E+02 9.71106446E-01 1.24372622E-01-1.04834212E-04    3
 4.93295743E-08-9.90678766E-12-3.15417365E+04 3.42557106E+01                   4
C8234KETA-A   10/4 THERMC   8H  16O   3     G    300.00   5000.00 1400.00      1
 3.13760726E+01 3.59643762E-02-1.22653968E-05 1.90040652E-09-1.10098716E-13    2
-6.01837393E+04-1.29991171E+02-1.45385245E+00 1.21897053E-01-1.03140305E-04    3
 4.80491303E-08-9.47939802E-12-4.95587843E+04 4.33755137E+01                   4
C8234KETOA-A  10/4 THERMC   8H  15O   2     G    300.00   5000.00 1401.00      1
 2.92392727E+01 3.31147106E-02-1.12858274E-05 1.74800834E-09-1.01250160E-13    2
-4.14558181E+04-1.21160443E+02 5.58478313E-02 1.05027062E-01-8.16305391E-05    3
 3.47062791E-08-6.36315473E-12-3.16486827E+04 3.43795532E+01                   4
C8234KETA-B   10/4 THERMC   8H  16O   3     G    300.00   5000.00 1395.00      1
 3.54953224E+01 3.28562918E-02-1.12888100E-05 1.75864062E-09-1.02298580E-13    2
-6.33287062E+04-1.54782444E+02-4.57154077E+00 1.40401660E-01-1.27124303E-04    3
 6.10754442E-08-1.21349409E-11-5.07036655E+04 5.57273422E+01                   4
C8234KETOA-B  10/4 THERMC   8H  15O   2     G    300.00   5000.00 1391.00      1
 3.12477416E+01 3.23111260E-02-1.12105382E-05 1.75746945E-09-1.02665307E-13    2
-4.39886208E+04-1.35554474E+02 1.28307842E-01 1.05148504E-01-7.82839505E-05    3
 3.15133281E-08-5.57944832E-12-3.31386673E+04 3.16846075E+01                   4
C8234KETA-D   10/4 THERMC   8H  16O   3     G    300.00   5000.00 1400.00      1
 3.12509638E+01 3.59424338E-02-1.22284198E-05 1.89148796E-09-1.09449425E-13    2
-6.41651362E+04-1.31775765E+02-2.66295929E-01 1.19205767E-01-1.01440638E-04    3
 4.78371630E-08-9.55093016E-12-5.40101139E+04 3.44443622E+01                   4
C8234KETOA-D  10/4 THERMC   8H  15O   2     G    300.00   5000.00 1390.00      1
 2.92914494E+01 3.36777216E-02-1.16135845E-05 1.81301441E-09-1.05593545E-13    2
-4.48921005E+04-1.23338651E+02 2.94524794E+00 9.26717649E-02-6.34915325E-05    3
 2.40970435E-08-4.19573682E-12-3.53725804E+04 1.93136686E+01                   4
C8234KETA-E   10/4 THERMC   8H  16O   3     G    300.00   5000.00 1400.00      1
 3.13760726E+01 3.59643762E-02-1.22653968E-05 1.90040652E-09-1.10098716E-13    2
-6.01837393E+04-1.29301689E+02-1.45385245E+00 1.21897053E-01-1.03140305E-04    3
 4.80491303E-08-9.47939802E-12-4.95587843E+04 4.40649954E+01                   4
C8234KETOA-E  10/4 THERMC   8H  15O   2     G    300.00   5000.00 1401.00      1
 2.92392727E+01 3.31147106E-02-1.12858274E-05 1.74800834E-09-1.01250160E-13    2
-4.14558181E+04-1.20470962E+02 5.58478313E-02 1.05027062E-01-8.16305391E-05    3
 3.47062791E-08-6.36315473E-12-3.16486827E+04 3.50690349E+01                   4
C8234KETA-F   10/4 THERMC   8H  16O   3     G    300.00   5000.00 1400.00      1
 3.13760726E+01 3.59643762E-02-1.22653968E-05 1.90040652E-09-1.10098716E-13    2
-6.01837393E+04-1.29991171E+02-1.45385245E+00 1.21897053E-01-1.03140305E-04    3
 4.80491303E-08-9.47939802E-12-4.95587843E+04 4.33755137E+01                   4
C8234KETOA-F  10/4 THERMC   8H  15O   2     G    300.00   5000.00 1401.00      1
 2.92392727E+01 3.31147106E-02-1.12858274E-05 1.74800834E-09-1.01250160E-13    2
-4.14558181E+04-1.21160443E+02 5.58478313E-02 1.05027062E-01-8.16305391E-05    3
 3.47062791E-08-6.36315473E-12-3.16486827E+04 3.43795532E+01                   4
C8234KETF-A   10/4 THERMC   8H  16O   3     G    300.00   5000.00 1400.00      1
 3.13760726E+01 3.59643762E-02-1.22653968E-05 1.90040652E-09-1.10098716E-13    2
-6.17942074E+04-1.29991171E+02-1.45385245E+00 1.21897053E-01-1.03140305E-04    3
 4.80491303E-08-9.47939802E-12-5.11692524E+04 4.33755137E+01                   4
C8234KETOF-A  10/4 THERMC   8H  15O   2     G    300.00   5000.00 1401.00      1
 2.92392727E+01 3.31147106E-02-1.12858274E-05 1.74800834E-09-1.01250160E-13    2
-4.30662862E+04-1.21160443E+02 5.58478313E-02 1.05027062E-01-8.16305391E-05    3
 3.47062791E-08-6.36315473E-12-3.32591508E+04 3.43795532E+01                   4